*KEYWORD
*TITLE
Bouncing ball                                                       
*SET_PART_LIST
         3
        12         3
*CONSTRAINED_LAGRANGE_IN_SOLID
         3         1         1         0         2         4         2
         0         0       1.0       0.0
*CONTROL_ALE
         2         1         2       -1.

*ALE_REFERENCE_SYSTEM_GROUP
         1         0         6         1         0         7         7
0,0,0,0
*ALE_REFERENCE_SYSTEM_SWITCH
1
0.01,10.
4,0

*CONTROL_TERMINATION
 0.0200000         0 0.0000000         0 0.0000000
*CONTROL_TIMESTEP
 0.0000000 0.2000000         0 0.0000000 0.0000000         0         0         0
*CONTROL_ENERGY
         2         2         1         1
*DATABASE_BINARY_D3PLOT
 0.0001000                   0
*DATABASE_GLSTAT
 0.0001000
*MAT_ELASTIC
         1 2000.0000 1.0000+07 0.3000000
*MAT_ELASTIC
         3 1000.0000 1.0000+08 0.3000000
*SECTION_SOLID
         1        12
*SECTION_SHELL
         3         0 0.0000000 0.0000000 0.0000000 0.0000000         0
 0.0010000 0.0010000 0.0010000 0.0010000 0.0000000
*INITIAL_VELOCITY_GENERATION
         1         1         0      30.0     -30.0       0.0

*SET_PART_LIST
         1
         1         2
*PART
 
         1         1         1         0         0         0         0         0
*PART
 
         2         1         1         0         0         0         0         0
*PART
 
         3         3         3         0         0         0         0         0
*INITIAL_VOID_PART
         1
*NODE
       1-6.363961101E-02-6.363961101E-02 0.000000000E+00       3       0
       2-5.939696729E-02-5.939696729E-02 0.000000000E+00       3       0
       3-5.515432730E-02-5.515432730E-02-1.110223000E-18       3       0
       4-5.091168731E-02-5.091168731E-02 0.000000000E+00       3       0
       5-4.666904733E-02-4.666904733E-02 5.551114999E-19       3       0
       6-4.242640734E-02-4.242640734E-02 0.000000000E+00       3       0
       7-8.018945903E-02-4.086134583E-02 0.000000000E+00       3       0
       8-7.484349608E-02-3.813725710E-02 0.000000000E+00       3       0
       9-6.949753314E-02-3.541316465E-02-2.220446000E-18       3       0
      10-6.415157020E-02-3.268907592E-02 0.000000000E+00       3       0
      11-5.880560726E-02-2.996498719E-02 2.220446000E-18       3       0
      12-5.345964059E-02-2.724089846E-02 0.000000000E+00       3       0
      13-8.889158070E-02-1.408139430E-02 0.000000000E+00       3       0
      14-8.296547830E-02-1.314263418E-02-1.110223000E-18       3       0
      15-7.703937590E-02-1.220387500E-02-2.220446000E-18       3       0
      16-7.111326605E-02-1.126511581E-02 0.000000000E+00       3       0
      17-6.518716365E-02-1.032635663E-02 1.110223000E-18       3       0
      18-5.926105753E-02-9.387597442E-03 0.000000000E+00       3       0
      19-8.889158070E-02 1.408139430E-02 0.000000000E+00       3       0
      20-8.296547830E-02 1.314263698E-02 0.000000000E+00       3       0
$ ... 492 like lines cut
*ELEMENT_SOLID
       1       1       1       2       8       7      37      38      44      43
       2       1       2       3       9       8      38      39      45      44
       3       1       3       4      10       9      39      40      46      45
       4       1       4       5      11      10      40      41      47      46
       5       1       5       6      12      11      41      42      48      47
       6       1       7       8      14      13      43      44      50      49
       7       1       8       9      15      14      44      45      51      50
       8       1       9      10      16      15      45      46      52      51
       9       1      10      11      17      16      46      47      53      52
      10       1      11      12      18      17      47      48      54      53
      11       1      13      14      20      19      49      50      56      55
      12       1      14      15      21      20      50      51      57      56
      13       1      15      16      22      21      51      52      58      57
      14       1      16      17      23      22      52      53      59      58
      15       1      17      18      24      23      53      54      60      59
      16       1      19      20      26      25      55      56      62      61
      17       1      20      21      27      26      56      57      63      62
      18       1      21      22      28      27      57      58      64      63
      19       1      22      23      29      28      58      59      65      64
      20       1      23      24      30      29      59      60      66      65
$ ... 225 like lines cut
*NODE
   10001 0.187573597E+00-0.424264073E-01 0.000000000E+00       3       0
   10002 0.191311330E+00-0.386886708E-01-0.111022300E-17       3       0
   10003 0.195049062E+00-0.349509381E-01 0.000000000E+00       3       0
   10004 0.198786795E+00-0.312132034E-01 0.000000000E+00       3       0
   10005 0.202524528E+00-0.274754688E-01 0.555111500E-18       3       0
   10006 0.206262276E+00-0.237377342E-01-0.832667250E-18       3       0
   10007 0.210000008E+00-0.199999996E-01 0.000000000E+00       3       0
   10008 0.176540360E+00-0.272408985E-01 0.000000000E+00       3       0
   10009 0.182116970E+00-0.247007478E-01 0.000000000E+00       3       0
   10010 0.187693581E+00-0.221605971E-01-0.222044600E-17       3       0
   10011 0.193270177E+00-0.196204484E-01-0.222044600E-17       3       0
   10012 0.198846787E+00-0.170802977E-01 0.000000000E+00       3       0
   10013 0.204423398E+00-0.145401498E-01-0.111022300E-17       3       0
   10014 0.210000008E+00-0.120000001E-01 0.000000000E+00       3       0
   10015 0.170738950E+00-0.938759744E-02 0.000000000E+00       3       0
   10016 0.177282453E+00-0.848966371E-02-0.333066900E-17       3       0
   10017 0.183825970E+00-0.759173138E-02-0.222044600E-17       3       0
   10018 0.190369472E+00-0.669379812E-02 0.222044600E-17       3       0
   10019 0.196912989E+00-0.579586532E-02-0.555111500E-18       3       0
   10020 0.203456491E+00-0.489793252E-02 0.000000000E+00       3       0
$ ... 494 like lines cut
*NODE
    9001 0.000000000E+00-1.000000015E-01-2.000000095E-03       7       7
    9002 1.250000019E-02-1.000000015E-01-2.000000095E-03       7       7
    9003 2.500000037E-02-1.000000015E-01-2.000000095E-03       7       7
    9004 3.750000149E-02-1.000000015E-01-2.000000095E-03       7       7
    9005 5.000000075E-02-1.000000015E-01-2.000000095E-03       7       7
    9006 6.250000000E-02-1.000000015E-01-2.000000095E-03       7       7
    9007 7.500000298E-02-1.000000015E-01-2.000000095E-03       7       7
    9008 8.749999851E-02-1.000000015E-01-2.000000095E-03       7       7
    9009 1.000000015E-01-1.000000015E-01-2.000000095E-03       7       7
    9010 1.124999970E-01-1.000000015E-01-2.000000095E-03       7       7
    9011 1.250000000E-01-1.000000015E-01-2.000000095E-03       7       7
    9012 1.375000030E-01-1.000000015E-01-2.000000095E-03       7       7
    9013 1.500000060E-01-1.000000015E-01-2.000000095E-03       7       7
    9014 1.624999940E-01-1.000000015E-01-2.000000095E-03       7       7
    9015 1.749999970E-01-1.000000015E-01-2.000000095E-03       7       7
    9016 1.875000000E-01-1.000000015E-01-2.000000095E-03       7       7
    9017 2.000000030E-01-1.000000015E-01-2.000000095E-03       7       7
    9018 2.125000060E-01-1.000000015E-01-2.000000095E-03       7       7
    9019 2.249999940E-01-1.000000015E-01-2.000000095E-03       7       7
    9020 2.374999970E-01-1.000000015E-01-2.000000095E-03       7       7
$ ... 62 like lines cut
*ELEMENT_SHELL
       1       3    9001    9042    9043    9002
       2       3    9002    9043    9044    9003
       3       3    9003    9044    9045    9004
       4       3    9004    9045    9046    9005
       5       3    9005    9046    9047    9006
       6       3    9006    9047    9048    9007
       7       3    9007    9048    9049    9008
       8       3    9008    9049    9050    9009
       9       3    9009    9050    9051    9010
      10       3    9010    9051    9052    9011
      11       3    9011    9052    9053    9012
      12       3    9012    9053    9054    9013
      13       3    9013    9054    9055    9014
      14       3    9014    9055    9056    9015
      15       3    9015    9056    9057    9016
      16       3    9016    9057    9058    9017
      17       3    9017    9058    9059    9018
      18       3    9018    9059    9060    9019
      19       3    9019    9060    9061    9020
      20       3    9020    9061    9062    9021
$ ... 20 like lines cut
*END
